!- Windows Line endings

Version,
    9.0;                      !- Version Identifier

SimulationControl,
    No,                       !- Do Zone Sizing Calculation
    No,                       !- Do System Sizing Calculation
    No,                       !- Do Plant Sizing Calculation
    No,                       !- Run Simulation for Sizing Periods
    Yes;                      !- Run Simulation for Weather File Run Periods

Building,
    None,                     !- Name
    0,                        !- North Axis
    Suburbs,                  !- Terrain
    0.04,                     !- Loads Convergence Tolerance Value
    0.4,                      !- Temperature Convergence Tolerance Value
    FullExteriorWithReflections,    !- Solar Distribution
    25,                       !- Maximum Number of Warmup Days
    6;                        !- Minimum Number of Warmup Days

Timestep,
    4;                        !- Number of Timesteps per Hour

Site:Location,
    Denver-Stapleton,         !- Name
    39.76,                    !- Latitude
    -104.86,                  !- Longitude
    -7.0,                     !- Time Zone
    1611.0;                   !- Elevation

SizingPeriod:DesignDay,
    DENVER_STAPLETON Ann Htg 99.6% Condns DB,    !- Name
    12,                       !- Month
    21,                       !- Day of Month
    WinterDesignDay,          !- Day Type
    -20,                      !- Maximum DryBulb Temperature
    0,                        !- Daily DryBulb Temperature Range
    ,                         !- DryBulb Temperature Range Modifier Type
    ,                         !- DryBulb Temperature Range Modifier Day Schedule Name
    Wetbulb,                  !- Humidity Condition Type
    -20,                      !- Wetbulb or DewPoint at Maximum DryBulb
    ,                         !- Humidity Condition Day Schedule Name
    ,                         !- Humidity Ratio at Maximum DryBulb
    ,                         !- Enthalpy at Maximum DryBulb
    ,                         !- Daily WetBulb Temperature Range
    83411,                    !- Barometric Pressure
    2.3,                      !- Wind Speed
    180,                      !- Wind Direction
    No,                       !- Rain Indicator
    No,                       !- Snow Indicator
    No,                       !- Daylight Saving Time Indicator
    ASHRAEClearSky,           !- Solar Model Indicator
    ,                         !- Beam Solar Day Schedule Name
    ,                         !- Diffuse Solar Day Schedule Name
    ,                         !- ASHRAE Clear Sky Optical Depth for Beam Irradiance taub
    ,                         !- ASHRAE Clear Sky Optical Depth for Diffuse Irradiance taud
    0;                        !- Sky Clearness

SizingPeriod:DesignDay,
    DENVER_STAPLETON Ann Clg .4% Condns DB=>MWB,    !- Name
    7,                        !- Month
    21,                       !- Day of Month
    SummerDesignDay,          !- Day Type
    34.1,                     !- Maximum DryBulb Temperature
    15.2,                     !- Daily DryBulb Temperature Range
    ,                         !- DryBulb Temperature Range Modifier Type
    ,                         !- DryBulb Temperature Range Modifier Day Schedule Name
    Wetbulb,                  !- Humidity Condition Type
    15.8,                     !- Wetbulb or DewPoint at Maximum DryBulb
    ,                         !- Humidity Condition Day Schedule Name
    ,                         !- Humidity Ratio at Maximum DryBulb
    ,                         !- Enthalpy at Maximum DryBulb
    ,                         !- Daily WetBulb Temperature Range
    83411,                    !- Barometric Pressure
    4,                        !- Wind Speed
    120,                      !- Wind Direction
    No,                       !- Rain Indicator
    No,                       !- Snow Indicator
    No,                       !- Daylight Saving Time Indicator
    ASHRAEClearSky,           !- Solar Model Indicator
    ,                         !- Beam Solar Day Schedule Name
    ,                         !- Diffuse Solar Day Schedule Name
    ,                         !- ASHRAE Clear Sky Optical Depth for Beam Irradiance taub
    ,                         !- ASHRAE Clear Sky Optical Depth for Diffuse Irradiance taud
    1;                        !- Sky Clearness

RunPeriod,
    ,                         !- Name
    1,                        !- Begin Month
    1,                        !- Begin Day of Month
    ,                         !- Begin Year
    12,                       !- End Month
    31,                       !- End Day of Month
    ,                         !- End Year
    Tuesday,                  !- Day of Week for Start Day
    Yes,                      !- Use Weather File Holidays and Special Days
    Yes,                      !- Use Weather File Daylight Saving Period
    No,                       !- Apply Weekend Holiday Rule
    Yes,                      !- Use Weather File Rain Indicators
    Yes;                      !- Use Weather File Snow Indicators
! 
! Site:GroundTemperature:BuildingSurface,
!     18,                       !- January Ground Temperature
!     18,                       !- February Ground Temperature
!     18,                       !- March Ground Temperature
!     18,                       !- April Ground Temperature
!     18,                       !- May Ground Temperature
!     18,                       !- June Ground Temperature
!     18,                       !- July Ground Temperature
!     18,                       !- August Ground Temperature
!     18,                       !- September Ground Temperature
!     18,                       !- October Ground Temperature
!     18,                       !- November Ground Temperature
!     18;                       !- December Ground Temperature

ScheduleTypeLimits,
    Fraction,                 !- Name
    0,                        !- Lower Limit Value
    1,                        !- Upper Limit Value
    Continuous,               !- Numeric Type
    Dimensionless;            !- Unit Type

ScheduleTypeLimits,
    On/Off,                   !- Name
    0,                        !- Lower Limit Value
    1,                        !- Upper Limit Value
    Discrete;                 !- Numeric Type

ScheduleTypeLimits,
    AnyNumber,                !- Name
    -9999,                    !- Lower Limit Value
    9999,                     !- Upper Limit Value
    Continuous,               !- Numeric Type
    Dimensionless;            !- Unit Type

SCHEDULE:COMPACT,
    Occupancy,                !- Name
    Fraction,                 !- Schedule Type Limits Name
    Through: 1/31,            !- Field 1
    For: Weekdays,            !- Field 2
    Until: 05:00,             !- Field 3
    0.5,                      !- Field 4
    Until: 24:00,             !- Field 5
    1.0,                      !- Field 6
    For: AllOtherDays,        !- Field 7
    Until: 04:00,             !- Field 8
    0.3,                      !- Field 9
    Until: 24:00,             !- Field 10
    0.7,                      !- Field 11
    Through: 12/31,           !- Field 12
    For: Weekdays,            !- Field 13
    Until: 05:00,             !- Field 14
    0.5,                      !- Field 15
    Until: 24:00,             !- Field 16
    1.0,                      !- Field 17
    For: AllOtherDays,        !- Field 18
    Until: 03:00,             !- Field 19
    0.2,                      !- Field 20
    Until: 24:00,             !- Field 21
    0.8;                      !- Field 22

SCHEDULE:COMPACT,
    Activity,                 !- Name
    AnyNumber,                !- Schedule Type Limits Name
    Through: 12/31,           !- Field 1
    For: AllDays,             !- Field 2
    Until: 24:00,             !- Field 3
    125;                      !- Field 4

SCHEDULE:COMPACT,
    Lighting,                 !- Name
    Fraction,                 !- Schedule Type Limits Name
    Through: 1/31,            !- Field 1
    For: Weekdays,            !- Field 2
    Until: 05:00,             !- Field 3
    0.5,                      !- Field 4
    Until: 24:00,             !- Field 5
    1.0,                      !- Field 6
    For: AllOtherDays,        !- Field 7
    Until: 04:00,             !- Field 8
    0.3,                      !- Field 9
    Until: 24:00,             !- Field 10
    0.7,                      !- Field 11
    Through: 12/31,           !- Field 12
    For: Weekdays,            !- Field 13
    Until: 05:00,             !- Field 14
    0.5,                      !- Field 15
    Until: 24:00,             !- Field 16
    1.0,                      !- Field 17
    For: AllOtherDays,        !- Field 18
    Until: 03:00,             !- Field 19
    0.2,                      !- Field 20
    Until: 24:00,             !- Field 21
    0.8;                      !- Field 22

SCHEDULE:COMPACT,
    ElectricEquipment,        !- Name
    Fraction,                 !- Schedule Type Limits Name
    Through: 1/31,            !- Field 1
    For: Weekdays,            !- Field 2
    Until: 05:00,             !- Field 3
    0.5,                      !- Field 4
    Until: 24:00,             !- Field 5
    1.0,                      !- Field 6
    For: AllOtherDays,        !- Field 7
    Until: 04:00,             !- Field 8
    0.3,                      !- Field 9
    Until: 24:00,             !- Field 10
    0.7,                      !- Field 11
    Through: 12/31,           !- Field 12
    For: Weekdays,            !- Field 13
    Until: 05:00,             !- Field 14
    0.5,                      !- Field 15
    Until: 24:00,             !- Field 16
    1.0,                      !- Field 17
    For: AllOtherDays,        !- Field 18
    Until: 03:00,             !- Field 19
    0.2,                      !- Field 20
    Until: 24:00,             !- Field 21
    0.8;                      !- Field 22

SCHEDULE:COMPACT,
    Infiltration,             !- Name
    Fraction,                 !- Schedule Type Limits Name
    Through: 1/31,            !- Field 1
    For: Weekdays,            !- Field 2
    Until: 05:00,             !- Field 3
    0.5,                      !- Field 4
    Until: 24:00,             !- Field 5
    1.0,                      !- Field 6
    For: AllOtherDays,        !- Field 7
    Until: 04:00,             !- Field 8
    0.3,                      !- Field 9
    Until: 24:00,             !- Field 10
    0.7,                      !- Field 11
    Through: 12/31,           !- Field 12
    For: Weekdays,            !- Field 13
    Until: 05:00,             !- Field 14
    0.5,                      !- Field 15
    Until: 24:00,             !- Field 16
    1.0,                      !- Field 17
    For: AllOtherDays,        !- Field 18
    Until: 03:00,             !- Field 19
    0.2,                      !- Field 20
    Until: 24:00,             !- Field 21
    0.8;                      !- Field 22

SCHEDULE:COMPACT,
    HVACSche,                 !- Name
    Fraction,                 !- Schedule Type Limits Name
    Through: 1/31,            !- Field 1
    For: Weekdays,            !- Field 2
    Until: 05:00,             !- Field 3
    0.5,                      !- Field 4
    Until: 24:00,             !- Field 5
    1.0,                      !- Field 6
    For: AllOtherDays,        !- Field 7
    Until: 04:00,             !- Field 8
    0.3,                      !- Field 9
    Until: 24:00,             !- Field 10
    0.7,                      !- Field 11
    Through: 12/31,           !- Field 12
    For: Weekdays,            !- Field 13
    Until: 05:00,             !- Field 14
    0.5,                      !- Field 15
    Until: 24:00,             !- Field 16
    1.0,                      !- Field 17
    For: AllOtherDays,        !- Field 18
    Until: 03:00,             !- Field 19
    0.2,                      !- Field 20
    Until: 24:00,             !- Field 21
    0.8;                      !- Field 22

SCHEDULE:COMPACT,
    CoolSche,                 !- Name
    Fraction,                 !- Schedule Type Limits Name
    Through: 1/31,            !- Field 1
    For: Weekdays,            !- Field 2
    Until: 05:00,             !- Field 3
    0.5,                      !- Field 4
    Until: 24:00,             !- Field 5
    1.0,                      !- Field 6
    For: AllOtherDays,        !- Field 7
    Until: 04:00,             !- Field 8
    0.3,                      !- Field 9
    Until: 24:00,             !- Field 10
    0.7,                      !- Field 11
    Through: 12/31,           !- Field 12
    For: Weekdays,            !- Field 13
    Until: 05:00,             !- Field 14
    0.5,                      !- Field 15
    Until: 24:00,             !- Field 16
    1.0,                      !- Field 17
    For: AllOtherDays,        !- Field 18
    Until: 03:00,             !- Field 19
    0.2,                      !- Field 20
    Until: 24:00,             !- Field 21
    0.8;                      !- Field 22

SCHEDULE:COMPACT,
    HeatSche,                 !- Name
    Fraction,                 !- Schedule Type Limits Name
    Through: 1/31,            !- Field 1
    For: Weekdays,            !- Field 2
    Until: 05:00,             !- Field 3
    0.5,                      !- Field 4
    Until: 24:00,             !- Field 5
    1.0,                      !- Field 6
    For: AllOtherDays,        !- Field 7
    Until: 04:00,             !- Field 8
    0.3,                      !- Field 9
    Until: 24:00,             !- Field 10
    0.7,                      !- Field 11
    Through: 12/31,           !- Field 12
    For: Weekdays,            !- Field 13
    Until: 05:00,             !- Field 14
    0.5,                      !- Field 15
    Until: 24:00,             !- Field 16
    1.0,                      !- Field 17
    For: AllOtherDays,        !- Field 18
    Until: 03:00,             !- Field 19
    0.2,                      !- Field 20
    Until: 24:00,             !- Field 21
    0.8;                      !- Field 22

SCHEDULE:COMPACT,
    Cool_setpoint_sche,       !- Name
    AnyNumber,                !- Schedule Type Limits Name
    Through: 1/31,            !- Field 1
    For: Weekdays,            !- Field 2
    Until: 05:00,             !- Field 3
    25,                       !- Field 4
    Until: 24:00,             !- Field 5
    26,                       !- Field 6
    For: AllOtherDays,        !- Field 7
    Until: 04:00,             !- Field 8
    25,                       !- Field 9
    Until: 24:00,             !- Field 10
    26,                       !- Field 11
    Through: 12/31,           !- Field 12
    For: Weekdays,            !- Field 13
    Until: 05:00,             !- Field 14
    25,                       !- Field 15
    Until: 24:00,             !- Field 16
    26,                       !- Field 17
    For: AllOtherDays,        !- Field 18
    Until: 03:00,             !- Field 19
    25,                       !- Field 20
    Until: 24:00,             !- Field 21
    26;                       !- Field 22

SCHEDULE:COMPACT,
    Heat_setpoint_sche,       !- Name
    AnyNumber,                !- Schedule Type Limits Name
    Through: 1/31,            !- Field 1
    For: Weekdays,            !- Field 2
    Until: 05:00,             !- Field 3
    20,                       !- Field 4
    Until: 24:00,             !- Field 5
    21,                       !- Field 6
    For: AllOtherDays,        !- Field 7
    Until: 04:00,             !- Field 8
    20,                       !- Field 9
    Until: 24:00,             !- Field 10
    21,                       !- Field 11
    Through: 12/31,           !- Field 12
    For: Weekdays,            !- Field 13
    Until: 05:00,             !- Field 14
    20,                       !- Field 15
    Until: 24:00,             !- Field 16
    21,                       !- Field 17
    For: AllOtherDays,        !- Field 18
    Until: 03:00,             !- Field 19
    20,                       !- Field 20
    Until: 24:00,             !- Field 21
    21;                       !- Field 22

Material,
    M01 100mm brick,          !- Name
    MediumRough,              !- Roughness
    0.1016,                   !- Thickness
    0.89,                     !- Conductivity
    1920,                     !- Density
    790;                      !- Specific Heat

Material,
    I02 50mm insulation board,    !- Name
    MediumRough,              !- Roughness
    0.0485127808988764,       !- Thickness
    0.03,                     !- Conductivity
    43,                       !- Density
    1210;                     !- Specific Heat

Material,
    G01a 19mm gypsum board,    !- Name
    MediumSmooth,             !- Roughness
    0.019,                    !- Thickness
    0.16,                     !- Conductivity
    800,                      !- Density
    1090;                     !- Specific Heat

Material,
    M14a 100mm heavyweight concrete,    !- Name
    MediumRough,              !- Roughness
    0.1016,                   !- Thickness
    1.95,                     !- Conductivity
    2240,                     !- Density
    900;                      !- Specific Heat

Material,
    F16 Acoustic tile,        !- Name
    MediumSmooth,             !- Roughness
    0.0191,                   !- Thickness
    0.06,                     !- Conductivity
    368,                      !- Density
    590;                      !- Specific Heat

Material,
    I02 50mm insulation board_roof,    !- Name
    MediumRough,              !- Roughness
    0.043486923076923076,     !- Thickness
    0.03,                     !- Conductivity
    43,                       !- Density
    1210;                     !- Specific Heat

Material,
    I02 50mm insulation board_floor,    !- Name
    MediumRough,              !- Roughness
    0.043486923076923076,     !- Thickness
    0.03,                     !- Conductivity
    43,                       !- Density
    1210;                     !- Specific Heat

Material:AirGap,
    F04 Wall air space resistance,    !- Name
    0.15;                     !- Thermal Resistance

Material:AirGap,
    F05 Ceiling air space resistance,    !- Name
    0.18;                     !- Thermal Resistance

WindowMaterial:SimpleGlazingSystem,
    fenestration,             !- Name
    1.2,                      !- UFactor
    0.5;                      !- Solar Heat Gain Coefficient

Construction,
    exwall,                   !- Name
    M01 100mm brick,          !- Outside Layer
    I02 50mm insulation board,    !- Layer 2
    F04 Wall air space resistance,    !- Layer 3
    G01a 19mm gypsum board;    !- Layer 4

Construction,
    exroof,                   !- Name
    M14a 100mm heavyweight concrete,    !- Outside Layer
    F05 Ceiling air space resistance,    !- Layer 2
    I02 50mm insulation board_roof,    !- Layer 3
    F16 Acoustic tile;        !- Layer 4

Construction,
    ceiling,                  !- Name
    G01a 19mm gypsum board,    !- Outside Layer
    F05 Ceiling air space resistance,    !- Layer 2
    G01a 19mm gypsum board;    !- Layer 3

Construction,
    exfloor,                  !- Name
    F16 Acoustic tile,        !- Outside Layer
    I02 50mm insulation board_floor,    !- Layer 2
    F05 Ceiling air space resistance,    !- Layer 3
    M14a 100mm heavyweight concrete;    !- Layer 4

Construction,
    intfloor,                 !- Name
    G01a 19mm gypsum board,    !- Outside Layer
    F05 Ceiling air space resistance,    !- Layer 2
    G01a 19mm gypsum board;    !- Layer 3

Construction,
    exwin,                    !- Name
    fenestration;             !- Outside Layer

GlobalGeometryRules,
    UpperLeftCorner,          !- Starting Vertex Position
    CounterClockWise,         !- Vertex Entry Direction
    Relative,                 !- Coordinate System
    Relative,                 !- Daylighting Reference Point Coordinate System
    Relative;                 !- Rectangular Surface Coordinate System

ZONE,
    0,                        !- Name
    0,                        !- Direction of Relative North
    0,                        !- X Origin
    0,                        !- Y Origin
    0.0,                      !- Z Origin
    1,                        !- Type
    1,                        !- Multiplier
    autocalculate,            !- Ceiling Height
    autocalculate,            !- Volume
    autocalculate,            !- Floor Area
    ,                         !- Zone Inside Convection Algorithm
    ,                         !- Zone Outside Convection Algorithm
    Yes;                      !- Part of Total Floor Area

ZONE,
    1,                        !- Name
    0,                        !- Direction of Relative North
    0,                        !- X Origin
    0,                        !- Y Origin
    3.5,                      !- Z Origin
    1,                        !- Type
    1,                        !- Multiplier
    autocalculate,            !- Ceiling Height
    autocalculate,            !- Volume
    autocalculate,            !- Floor Area
    ,                         !- Zone Inside Convection Algorithm
    ,                         !- Zone Outside Convection Algorithm
    Yes;                      !- Part of Total Floor Area

ZONE,
    2,                        !- Name
    0,                        !- Direction of Relative North
    0,                        !- X Origin
    0,                        !- Y Origin
    7.0,                      !- Z Origin
    1,                        !- Type
    1,                        !- Multiplier
    autocalculate,            !- Ceiling Height
    autocalculate,            !- Volume
    autocalculate,            !- Floor Area
    ,                         !- Zone Inside Convection Algorithm
    ,                         !- Zone Outside Convection Algorithm
    Yes;                      !- Part of Total Floor Area

ZONELIST,
    zonelist,                 !- Name
    0,                        !- Zone 1 Name
    1,                        !- Zone 2 Name
    2;                        !- Zone 3 Name

BUILDINGSURFACE:DETAILED,
    0_Floor0,                 !- Name
    Floor,                    !- Surface Type
    exfloor,                  !- Construction Name
    0,                        !- Zone Name
    Ground,                   !- Outside Boundary Condition
    ,                         !- Outside Boundary Condition Object
    NoSun,                    !- Sun Exposure
    WindExposed,              !- Wind Exposure
    autocalculate,            !- View Factor to Ground
    3,                        !- Number of Vertices
    -4.146399999764981,       !- Vertex 1 Xcoordinate
    3.0919999998877756,       !- Vertex 1 Ycoordinate
    0,                        !- Vertex 1 Zcoordinate
    2.624599999951897,        !- Vertex 2 Xcoordinate
    3.1219999992172234,       !- Vertex 2 Ycoordinate
    0,                        !- Vertex 2 Zcoordinate
    -3.756400000100257,       !- Vertex 3 Xcoordinate
    -4.497999999963213,       !- Vertex 3 Ycoordinate
    0;                        !- Vertex 3 Zcoordinate

BUILDINGSURFACE:DETAILED,
    0_Ceiling0,               !- Name
    Ceiling,                  !- Surface Type
    ceiling,                  !- Construction Name
    0,                        !- Zone Name
    Surface,                  !- Outside Boundary Condition
    1_Floor0,                 !- Outside Boundary Condition Object
    NoSun,                    !- Sun Exposure
    NoWind,                   !- Wind Exposure
    autocalculate,            !- View Factor to Ground
    3,                        !- Number of Vertices
    -4.146399999764981,       !- Vertex 1 Xcoordinate
    3.0919999998877756,       !- Vertex 1 Ycoordinate
    3.5,                      !- Vertex 1 Zcoordinate
    -3.756400000100257,       !- Vertex 2 Xcoordinate
    -4.497999999963213,       !- Vertex 2 Ycoordinate
    3.5,                      !- Vertex 2 Zcoordinate
    2.624599999951897,        !- Vertex 3 Xcoordinate
    3.1219999992172234,       !- Vertex 3 Ycoordinate
    3.5;                      !- Vertex 3 Zcoordinate

BUILDINGSURFACE:DETAILED,
    0_Floor1,                 !- Name
    Floor,                    !- Surface Type
    exfloor,                  !- Construction Name
    0,                        !- Zone Name
    Ground,                   !- Outside Boundary Condition
    ,                         !- Outside Boundary Condition Object
    NoSun,                    !- Sun Exposure
    WindExposed,              !- Wind Exposure
    autocalculate,            !- View Factor to Ground
    3,                        !- Number of Vertices
    2.624599999951897,        !- Vertex 1 Xcoordinate
    3.1219999992172234,       !- Vertex 1 Ycoordinate
    0,                        !- Vertex 1 Zcoordinate
    2.6536000000487547,       !- Vertex 2 Xcoordinate
    -4.837999999814201,       !- Vertex 2 Ycoordinate
    0,                        !- Vertex 2 Zcoordinate
    -3.756400000100257,       !- Vertex 3 Xcoordinate
    -4.497999999963213,       !- Vertex 3 Ycoordinate
    0;                        !- Vertex 3 Zcoordinate

BUILDINGSURFACE:DETAILED,
    0_Ceiling1,               !- Name
    Ceiling,                  !- Surface Type
    ceiling,                  !- Construction Name
    0,                        !- Zone Name
    Surface,                  !- Outside Boundary Condition
    1_Floor1,                 !- Outside Boundary Condition Object
    NoSun,                    !- Sun Exposure
    NoWind,                   !- Wind Exposure
    autocalculate,            !- View Factor to Ground
    3,                        !- Number of Vertices
    2.624599999951897,        !- Vertex 1 Xcoordinate
    3.1219999992172234,       !- Vertex 1 Ycoordinate
    3.5,                      !- Vertex 1 Zcoordinate
    -3.756400000100257,       !- Vertex 2 Xcoordinate
    -4.497999999963213,       !- Vertex 2 Ycoordinate
    3.5,                      !- Vertex 2 Zcoordinate
    2.6536000000487547,       !- Vertex 3 Xcoordinate
    -4.837999999814201,       !- Vertex 3 Ycoordinate
    3.5;                      !- Vertex 3 Zcoordinate

BUILDINGSURFACE:DETAILED,
    0_Wall0,                  !- Name
    Wall,                     !- Surface Type
    exwall,                   !- Construction Name
    0,                        !- Zone Name
    Outdoors,                 !- Outside Boundary Condition
    ,                         !- Outside Boundary Condition Object
    SunExposed,               !- Sun Exposure
    WindExposed,              !- Wind Exposure
    autocalculate,            !- View Factor to Ground
    4,                        !- Number of Vertices
    -4.146399999764981,       !- Vertex 1 Xcoordinate
    3.0919999998877756,       !- Vertex 1 Ycoordinate
    3.5,                      !- Vertex 1 Zcoordinate
    2.624599999951897,        !- Vertex 2 Xcoordinate
    3.1219999992172234,       !- Vertex 2 Ycoordinate
    3.5,                      !- Vertex 2 Zcoordinate
    2.624599999951897,        !- Vertex 3 Xcoordinate
    3.1219999992172234,       !- Vertex 3 Ycoordinate
    0,                        !- Vertex 3 Zcoordinate
    -4.146399999764981,       !- Vertex 4 Xcoordinate
    3.0919999998877756,       !- Vertex 4 Ycoordinate
    0;                        !- Vertex 4 Zcoordinate

BUILDINGSURFACE:DETAILED,
    0_Wall1,                  !- Name
    Wall,                     !- Surface Type
    exwall,                   !- Construction Name
    0,                        !- Zone Name
    Outdoors,                 !- Outside Boundary Condition
    ,                         !- Outside Boundary Condition Object
    SunExposed,               !- Sun Exposure
    WindExposed,              !- Wind Exposure
    autocalculate,            !- View Factor to Ground
    4,                        !- Number of Vertices
    -3.756400000100257,       !- Vertex 1 Xcoordinate
    -4.497999999963213,       !- Vertex 1 Ycoordinate
    3.5,                      !- Vertex 1 Zcoordinate
    -4.146399999764981,       !- Vertex 2 Xcoordinate
    3.0919999998877756,       !- Vertex 2 Ycoordinate
    3.5,                      !- Vertex 2 Zcoordinate
    -4.146399999764981,       !- Vertex 3 Xcoordinate
    3.0919999998877756,       !- Vertex 3 Ycoordinate
    0,                        !- Vertex 3 Zcoordinate
    -3.756400000100257,       !- Vertex 4 Xcoordinate
    -4.497999999963213,       !- Vertex 4 Ycoordinate
    0;                        !- Vertex 4 Zcoordinate

BUILDINGSURFACE:DETAILED,
    0_Wall2,                  !- Name
    Wall,                     !- Surface Type
    exwall,                   !- Construction Name
    0,                        !- Zone Name
    Outdoors,                 !- Outside Boundary Condition
    ,                         !- Outside Boundary Condition Object
    SunExposed,               !- Sun Exposure
    WindExposed,              !- Wind Exposure
    autocalculate,            !- View Factor to Ground
    4,                        !- Number of Vertices
    2.6536000000487547,       !- Vertex 1 Xcoordinate
    -4.837999999814201,       !- Vertex 1 Ycoordinate
    3.5,                      !- Vertex 1 Zcoordinate
    -3.756400000100257,       !- Vertex 2 Xcoordinate
    -4.497999999963213,       !- Vertex 2 Ycoordinate
    3.5,                      !- Vertex 2 Zcoordinate
    -3.756400000100257,       !- Vertex 3 Xcoordinate
    -4.497999999963213,       !- Vertex 3 Ycoordinate
    0,                        !- Vertex 3 Zcoordinate
    2.6536000000487547,       !- Vertex 4 Xcoordinate
    -4.837999999814201,       !- Vertex 4 Ycoordinate
    0;                        !- Vertex 4 Zcoordinate

BUILDINGSURFACE:DETAILED,
    0_Wall3,                  !- Name
    Wall,                     !- Surface Type
    exwall,                   !- Construction Name
    0,                        !- Zone Name